Circuit: * Z:\home\twoninefour\hdd\seniorDesign\Vupiter\src\switched\sim\Draft1.asc

Fatal Error: Undefined subcircuit: tffrh
