Circuit: * PSpice Model Editor - Version 16.2.0

Fatal Error: No analysis request found.
