Circuit: * Z:\home\twoninefour\hdd\seniorDesign\Vupiter\src\linear\sim\Draft1.asc

.OP point found by inspection.

Date: Sat Mar 27 03:47:25 2021
Total elapsed time: 0.093 seconds.

tnom = 27
temp = 27
method = modified trap
totiter = 2150
traniter = 2150
tranpoints = 1076
accept = 1070
rejected = 6
matrix size = 3
fillins = 0
solver = Alternate
Matrix Compiler1: 56 bytes object code size  0.2/0.1/[0.1]
Matrix Compiler2: 197 bytes object code size  0.2/0.2/[0.1]

